$ Nastran bulk data, exported from MATLAB beam FEA toolkit
$ Material: CFRP quasi-isotropic
$ Units: SI (m, N, Pa, kg)
$ Generated for cross-verification of MATLAB beam results.
$ Target agreement: peak VM stress within 10 percent, peak displacement within 5 percent.
SOL 101
CEND
TITLE = Archer Midnight Frame, LC2 2g symmetric maneuver
SUBCASE 1
  LOAD = 1
  SPC  = 1
  DISPLACEMENT(SORT1,REAL) = ALL
  STRESS(SORT1,REAL) = ALL
  FORCE(SORT1,REAL) = ALL
  SPCFORCES(SORT1,REAL) = ALL
BEGIN BULK
$
$ Material card
MAT1,1,7.000000E+10,,0.3000,1600.00
$
$ Property: hollow circular tube
PBARL,1,1,,TUBE
,0.300000,0.280000
$
$ Grid points (19 nodes)
GRID,1,,0.000000,0.000000,1.200000
GRID,2,,3.000000,0.000000,1.200000
GRID,3,,6.000000,0.000000,1.200000
GRID,4,,9.000000,0.000000,1.200000
GRID,5,,12.000000,0.000000,1.200000
GRID,6,,6.000000,-1.000000,1.200000
GRID,7,,6.000000,-2.100000,1.200000
GRID,8,,6.000000,-3.200000,1.200000
GRID,9,,6.000000,-4.300000,1.200000
GRID,10,,6.000000,-5.400000,1.200000
GRID,11,,6.000000,-6.500000,1.200000
GRID,12,,6.000000,1.000000,1.200000
GRID,13,,6.000000,2.100000,1.200000
GRID,14,,6.000000,3.200000,1.200000
GRID,15,,6.000000,4.300000,1.200000
GRID,16,,6.000000,5.400000,1.200000
GRID,17,,6.000000,6.500000,1.200000
GRID,18,,11.500000,1.500000,2.400000
GRID,19,,11.500000,-1.500000,2.400000
$
$ Beam elements with orientation vectors (18 elements)
CBAR,1,1,1,2,0.0000,0.0000,1.0000
CBAR,2,1,2,3,0.0000,0.0000,1.0000
CBAR,3,1,3,4,0.0000,0.0000,1.0000
CBAR,4,1,4,5,0.0000,0.0000,1.0000
CBAR,5,1,3,6,0.0000,0.0000,1.0000
CBAR,6,1,6,7,0.0000,0.0000,1.0000
CBAR,7,1,7,8,0.0000,0.0000,1.0000
CBAR,8,1,8,9,0.0000,0.0000,1.0000
CBAR,9,1,9,10,0.0000,0.0000,1.0000
CBAR,10,1,10,11,0.0000,0.0000,1.0000
CBAR,11,1,3,12,0.0000,0.0000,1.0000
CBAR,12,1,12,13,0.0000,0.0000,1.0000
CBAR,13,1,13,14,0.0000,0.0000,1.0000
CBAR,14,1,14,15,0.0000,0.0000,1.0000
CBAR,15,1,15,16,0.0000,0.0000,1.0000
CBAR,16,1,16,17,0.0000,0.0000,1.0000
CBAR,17,1,5,18,0.0000,0.0000,1.0000
CBAR,18,1,5,19,0.0000,0.0000,1.0000
$
$ Boundary condition: node 3 fully fixed
SPC,1,3,123456,0.0
$
$ Applied loads
FORCE,1,1,0,-1.245870E+04,0,0,1
FORCE,1,2,0,-1.245870E+04,0,0,1
FORCE,1,3,0,-1.245870E+04,0,0,1
FORCE,1,4,0,-1.245870E+04,0,0,1
FORCE,1,5,0,-1.245870E+04,0,0,1
FORCE,1,6,0,5.191125E+03,0,0,1
FORCE,1,7,0,5.191125E+03,0,0,1
FORCE,1,8,0,5.191125E+03,0,0,1
FORCE,1,9,0,5.191125E+03,0,0,1
FORCE,1,10,0,5.191125E+03,0,0,1
FORCE,1,11,0,5.191125E+03,0,0,1
FORCE,1,12,0,5.191125E+03,0,0,1
FORCE,1,13,0,5.191125E+03,0,0,1
FORCE,1,14,0,5.191125E+03,0,0,1
FORCE,1,15,0,5.191125E+03,0,0,1
FORCE,1,16,0,5.191125E+03,0,0,1
FORCE,1,17,0,5.191125E+03,0,0,1
FORCE,1,18,0,5.191125E+03,0,0,1
FORCE,1,19,0,5.191125E+03,0,0,1
ENDDATA
